oofem.out
CFRP confined concrete cylinder with flax indicator
NonLinearStatic nmsteps 1  nmodules 1 nsteps 1 profileopt 1 contextOutputStep 1000 smtype 8 lstype 4
nsteps 501 rtolf 1.e-3 stiffMode 2 maxiter 1000 controllmode 1 donotfixload manrmsteps 10 smtype 8 lstype 4
vtkxml primvars 2 1 4 cellvars 8 1 2 4 5 13 46 12 41 tstep_step 1 domain_all
domain 2dPlaneStress
OutputManager tstep_all dofman_output {1 4}
ndofman 653 nelem 1196 ncrosssect 3 nmat 3 nbc 2 nic 0 nltf 2
node 1 coords 3 0.000000e+00 0.000000e+00 0.000000e+00 bc 2 1 1
node 2 coords 3 5.000000e-02 0.000000e+00 0.000000e+00 mastermask 2 1 1 doftype 2 1 1
node 3 coords 3 5.000000e-02 2.000000e-01 0.000000e+00 mastermask 2 4 4 doftype 2 1 1
node 4 coords 3 0.000000e+00 2.000000e-01 0.000000e+00 bc 2 1 2
node 5 coords 3 5.645000e-02 0.000000e+00 0.000000e+00
node 6 coords 3 5.645000e-02 5.000000e-02 0.000000e+00
node 7 coords 3 5.645000e-02 1.500000e-01 0.000000e+00
node 8 coords 3 5.645000e-02 2.000000e-01 0.000000e+00
node 9 coords 3 6.745000e-02 5.000000e-02 0.000000e+00
node 10 coords 3 6.745000e-02 1.500000e-01 0.000000e+00
node 11 coords 3 5.000000e-03 0.000000e+00 0.000000e+00 mastermask 2 1 1 doftype 2 1 1
node 12 coords 3 1.000000e-02 0.000000e+00 0.000000e+00 mastermask 2 1 1 doftype 2 1 1
node 13 coords 3 1.500000e-02 0.000000e+00 0.000000e+00 mastermask 2 1 1 doftype 2 1 1
node 14 coords 3 2.000000e-02 0.000000e+00 0.000000e+00 mastermask 2 1 1 doftype 2 1 1
node 15 coords 3 2.500000e-02 0.000000e+00 0.000000e+00 mastermask 2 1 1 doftype 2 1 1
node 16 coords 3 3.000000e-02 0.000000e+00 0.000000e+00 mastermask 2 1 1 doftype 2 1 1
node 17 coords 3 3.500000e-02 0.000000e+00 0.000000e+00 mastermask 2 1 1 doftype 2 1 1
node 18 coords 3 4.000000e-02 0.000000e+00 0.000000e+00 mastermask 2 1 1 doftype 2 1 1
node 19 coords 3 4.500000e-02 0.000000e+00 0.000000e+00 mastermask 2 1 1 doftype 2 1 1
node 20 coords 3 5.000000e-02 5.000000e-03 0.000000e+00
node 21 coords 3 5.000000e-02 1.000000e-02 0.000000e+00
node 22 coords 3 5.000000e-02 1.500000e-02 0.000000e+00
node 23 coords 3 5.000000e-02 2.000000e-02 0.000000e+00
node 24 coords 3 5.000000e-02 2.500000e-02 0.000000e+00
node 25 coords 3 5.000000e-02 3.000000e-02 0.000000e+00
node 26 coords 3 5.000000e-02 3.500000e-02 0.000000e+00
node 27 coords 3 5.000000e-02 4.000000e-02 0.000000e+00
node 28 coords 3 5.000000e-02 4.500000e-02 0.000000e+00
node 29 coords 3 5.000000e-02 5.000000e-02 0.000000e+00
node 30 coords 3 5.000000e-02 5.500000e-02 0.000000e+00
node 31 coords 3 5.000000e-02 6.000000e-02 0.000000e+00
node 32 coords 3 5.000000e-02 6.500000e-02 0.000000e+00
node 33 coords 3 5.000000e-02 7.000000e-02 0.000000e+00
node 34 coords 3 5.000000e-02 7.500000e-02 0.000000e+00
node 35 coords 3 5.000000e-02 8.000000e-02 0.000000e+00
node 36 coords 3 5.000000e-02 8.500000e-02 0.000000e+00
node 37 coords 3 5.000000e-02 9.000000e-02 0.000000e+00
node 38 coords 3 5.000000e-02 9.500000e-02 0.000000e+00
node 39 coords 3 5.000000e-02 1.000000e-01 0.000000e+00
# ... 19 like lines cut
node 59 coords 3 4.500000e-02 2.000000e-01 0.000000e+00 mastermask 2 4 4 doftype 2 1 1
node 60 coords 3 4.000000e-02 2.000000e-01 0.000000e+00 mastermask 2 4 4 doftype 2 1 1
node 61 coords 3 3.500000e-02 2.000000e-01 0.000000e+00 mastermask 2 4 4 doftype 2 1 1
node 62 coords 3 3.000000e-02 2.000000e-01 0.000000e+00 mastermask 2 4 4 doftype 2 1 1
node 63 coords 3 2.500000e-02 2.000000e-01 0.000000e+00 mastermask 2 4 4 doftype 2 1 1
node 64 coords 3 2.000000e-02 2.000000e-01 0.000000e+00 mastermask 2 4 4 doftype 2 1 1
node 65 coords 3 1.500000e-02 2.000000e-01 0.000000e+00 mastermask 2 4 4 doftype 2 1 1
node 66 coords 3 1.000000e-02 2.000000e-01 0.000000e+00 mastermask 2 4 4 doftype 2 1 1
node 67 coords 3 5.000000e-03 2.000000e-01 0.000000e+00 mastermask 2 4 4 doftype 2 1 1
node 68 coords 3 0.000000e+00 1.950000e-01 0.000000e+00
node 69 coords 3 0.000000e+00 1.900000e-01 0.000000e+00
node 70 coords 3 0.000000e+00 1.850000e-01 0.000000e+00
node 71 coords 3 0.000000e+00 1.800000e-01 0.000000e+00
node 72 coords 3 0.000000e+00 1.750000e-01 0.000000e+00
node 73 coords 3 0.000000e+00 1.700000e-01 0.000000e+00
node 74 coords 3 0.000000e+00 1.650000e-01 0.000000e+00
node 75 coords 3 0.000000e+00 1.600000e-01 0.000000e+00
node 76 coords 3 0.000000e+00 1.550000e-01 0.000000e+00
node 77 coords 3 0.000000e+00 1.500000e-01 0.000000e+00
node 78 coords 3 0.000000e+00 1.450000e-01 0.000000e+00
node 79 coords 3 0.000000e+00 1.400000e-01 0.000000e+00
node 80 coords 3 0.000000e+00 1.350000e-01 0.000000e+00
node 81 coords 3 0.000000e+00 1.300000e-01 0.000000e+00
node 82 coords 3 0.000000e+00 1.250000e-01 0.000000e+00
node 83 coords 3 0.000000e+00 1.200000e-01 0.000000e+00
node 84 coords 3 0.000000e+00 1.150000e-01 0.000000e+00
node 85 coords 3 0.000000e+00 1.100000e-01 0.000000e+00
node 86 coords 3 0.000000e+00 1.050000e-01 0.000000e+00
node 87 coords 3 0.000000e+00 1.000000e-01 0.000000e+00
# ... 566 like lines cut
Axisymm3d 1 nodes 3 1 106 167 crossSect 1 mat 1
Axisymm3d 2 nodes 3 106 105 168 crossSect 1 mat 1
Axisymm3d 3 nodes 3 105 104 169 crossSect 1 mat 1
Axisymm3d 4 nodes 3 104 103 170 crossSect 1 mat 1
Axisymm3d 5 nodes 3 103 102 171 crossSect 1 mat 1
Axisymm3d 6 nodes 3 102 101 172 crossSect 1 mat 1
Axisymm3d 7 nodes 3 101 100 173 crossSect 1 mat 1
Axisymm3d 8 nodes 3 100 99 174 crossSect 1 mat 1
Axisymm3d 9 nodes 3 99 98 175 crossSect 1 mat 1
Axisymm3d 10 nodes 3 98 97 176 crossSect 1 mat 1
Axisymm3d 11 nodes 3 97 96 177 crossSect 1 mat 1
Axisymm3d 12 nodes 3 96 95 178 crossSect 1 mat 1
Axisymm3d 13 nodes 3 95 94 179 crossSect 1 mat 1
Axisymm3d 14 nodes 3 94 93 180 crossSect 1 mat 1
Axisymm3d 15 nodes 3 93 92 181 crossSect 1 mat 1
Axisymm3d 16 nodes 3 92 91 182 crossSect 1 mat 1
Axisymm3d 17 nodes 3 91 90 183 crossSect 1 mat 1
Axisymm3d 18 nodes 3 90 89 184 crossSect 1 mat 1
Axisymm3d 19 nodes 3 89 88 185 crossSect 1 mat 1
Axisymm3d 20 nodes 3 88 87 186 crossSect 1 mat 1
# ... 1176 like lines cut
SimpleCS 1 material 1
SimpleCS 2 material 2
SimpleCS 3 material 3
con2dpm 1 d 2400 E 31.0e9 n 0.2 talpha 0. wf 2.22e-4 fc 30.0e6 ft 2.7e6 hp 0.01 yieldtol 1.e-6 asoft 15. stype 2 kinit 0.3 ecc 0.518 efc 1.e-4 ahard 8.e-2 bhard 3.3e-3 chard 2. dhard 1.e-6 dilation 0.85
IsoLE 2 d 0.0177 E 4.5e9 n 0.2 tAlpha 0.0
IsoLE 3 d 0.0142 E 0.4e9 n 0.2 tAlpha 0.0
BoundaryCondition  1 loadTimeFunction 1 prescribedvalue 0.0 
BoundaryCondition  2 loadTimeFunction 2 prescribedvalue -0.003 
ConstantFunction 1 f(t) 1.0
PiecewiseLinFunction 2 t 2 0. 501. f(t) 2 0.0 6

#%BEGIN_CHECK%
#TIME
#NODE number 4 dof 2 unknown d
#REACTION number 1 dof 2
#%END_CHECK%
